85

Mg        26.59300       -0.35400       30.05000
C         28.98100       -0.11800       32.66000
C         24.08700        0.33500       32.30100
C         24.42200       -0.84900       27.56000
C         29.33600       -1.37500       27.96400
N         26.55700       -0.02700       32.27200
C         27.59800        0.08300       33.14000
C         27.09500        0.30300       34.57300
C         25.56100        0.43000       34.39200
C         25.40900        0.16200       32.89100
C         24.76400       -0.55500       35.38200
C         27.76600        1.50600       35.28400
C         26.93400        2.17100       36.44900
C         27.67700        3.03700       37.50800
O         28.28500        4.03300       37.28900
O         27.66300        2.47700       38.83400
N         24.56100       -0.35900       29.95200
C         23.70300        0.05000       30.94900
C         22.50900        0.36600       30.36600
C         22.48500       -0.01300       29.02000
C         23.84800       -0.45900       28.75600
C         21.29800        0.91500       31.16600
C         21.44700        0.05400       27.94300
O         21.45900       -0.46600       26.78300
C         20.27600        1.01900       28.22900
N         26.82000       -1.45600       28.16600
C         25.80300       -1.29500       27.24300
C         26.21700       -1.55700       25.80700
C         27.78700       -1.61100       25.97400
C         28.00000       -1.47300       27.46000
C         25.55400       -2.75300       25.07400
C         28.54300       -0.62300       25.06900
C         29.58800       -1.08600       24.14400
N         28.71900       -0.68100       30.17300
C         29.68400       -1.02200       29.26300
C         31.01700       -0.95200       29.88200
C         30.73400       -0.66000       31.22900
C         29.37400       -0.50500       31.35000
C         32.40400       -1.16600       29.27900
C         31.30600       -0.44700       32.53000
O         32.46900       -0.45700       32.98300
C         30.22400       -0.20900       33.53300
C         30.28200       -1.35300       34.42600
O         29.88700       -2.45700       34.09000
O         30.71400       -1.11800       35.72400
C         30.58000       -2.22900       36.66500
C         28.49000        3.12200       39.89200
H         27.90403        3.27816       40.80123
H         23.22900        0.64900       32.90000
H         23.88300       -0.63000       26.63600
H         30.24200       -1.61500       27.40400
H         27.43400       -0.56800       35.13200
H         25.15300        1.39700       34.68300
H         25.45500       -0.82500       36.18000
H         24.44500       -1.40900       34.78300
H         23.80800       -0.13400       35.69200
H         27.98100        2.34100       34.61800
H         28.71700        1.16800       35.69800
H         26.38000        1.41000       36.99900
H         26.21000        2.87700       36.04200
H         21.51800        1.29500       32.16400
H         20.43500        0.24900       31.16900
H         21.03200        1.86400       30.70100
H         20.65500        2.01800       28.44400
H         19.61600        0.72900       29.04700
H         19.73700        1.12600       27.28800
H         25.96000       -0.62800       25.29700
H         28.01200       -2.65900       25.77200
H         24.95600       -2.23900       24.32200
H         24.81500       -3.27100       25.68500
H         26.15300       -3.49300       24.54300
H         29.07200       -0.05500       25.83400
H         27.83600        0.02700       24.55200
H         29.09400       -1.21900       23.18100
H         29.96100       -2.04900       24.49300
H         30.50600       -0.51700       24.29100
H         32.97900       -1.77100       29.98000
H         32.90400       -0.22000       29.07500
H         32.28300       -1.76100       28.37300
H         30.38800        0.73500       34.05200
H         31.53800       -2.33200       37.17600
H         30.39200       -3.22200       36.25800
H         29.98800       -2.02800       37.55800
H         28.92900        4.04700       39.51900
H         29.35700        2.48900       40.07700
