85

Mg         8.94500        3.95700       29.08400
C         10.39000        2.52700       32.07300
C          7.50600        6.29100       31.10700
C          7.41200        5.04700       26.48700
C         10.41600        1.28900       27.28700
N          8.87500        4.19600       31.41000
C          9.63000        3.62600       32.39100
C          9.42900        4.34300       33.67900
C          8.32500        5.46300       33.34800
C          8.24400        5.33200       31.80500
C          6.94800        5.54000       34.04700
C         10.78300        4.82100       34.39300
C         10.68500        5.90500       35.51600
C         11.44700        5.54300       36.79300
O         12.64800        5.63900       36.89100
O         10.58500        5.16800       37.74600
N          7.58300        5.43600       28.85100
C          7.09000        6.27600       29.83100
C          6.19800        7.24500       29.13900
C          6.17900        6.88100       27.77100
C          7.09500        5.79500       27.61300
C          5.55500        8.35700       29.80800
C          5.47500        7.50500       26.56800
O          5.44900        7.11600       25.37900
C          4.54500        8.55300       26.86700
N          8.83400        3.15700       27.22800
C          8.18600        3.86700       26.26300
C          8.31600        3.25800       24.84700
C          9.47000        2.26900       25.11000
C          9.59500        2.20800       26.60900
C          7.05600        2.55200       24.35100
C         10.74400        2.65200       24.36000
C         11.11100        1.75600       23.17300
N         10.03100        2.16100       29.53100
C         10.62600        1.22200       28.67800
C         11.44300        0.30000       29.52300
C         11.31500        0.77900       30.81200
C         10.50400        1.91900       30.82400
C         12.17100       -0.86200       29.04500
C         11.68500        0.51300       32.09000
O         12.38600       -0.47000       32.43100
C         11.23800        1.67600       33.04400
C         10.40800        1.12200       34.09100
O          9.26800        0.65700       33.89600
O         11.02800        1.25000       35.30000
C         10.50700        0.56900       36.55400
C         11.12400        5.09600       39.18300
H         10.52822        5.77043       39.80325
H          7.07900        7.07600       31.73400
H          6.97800        5.43400       25.56300
H         10.97300        0.59000       26.66000
H          8.90900        3.67100       34.36100
H          8.73900        6.45300       33.53600
H          6.93900        5.19800       35.08200
H          6.24400        4.99100       33.42300
H          6.53500        6.54800       34.03500
H         11.58300        5.16600       33.74000
H         11.13200        3.92600       34.90900
H          9.62800        6.12000       35.67200
H         11.11800        6.85100       35.19000
H          5.70400        9.19400       29.12600
H          5.95100        8.57900       30.79900
H          4.49400        8.10700       29.78300
H          3.85600        8.27200       27.66400
H          4.13400        8.83700       25.89900
H          5.14000        9.38400       27.24700
H          8.59000        4.07100       24.17400
H          9.11900        1.28400       24.80400
H          6.37300        2.61900       25.19800
H          7.15500        1.49500       24.10500
H          6.67800        3.09100       23.48200
H         11.59000        2.76900       25.03800
H         10.69800        3.67100       23.97500
H         10.62600        2.28200       22.35100
H         10.64000        0.78200       23.30200
H         12.19600        1.78900       23.07400
H         13.22700       -0.61000       28.94500
H         11.98300       -1.30400       28.06600
H         11.93700       -1.60800       29.80400
H         12.16500        2.19400       33.28900
H         10.02300       -0.38300       36.33600
H          9.88300        1.26700       37.11300
H         11.42100        0.22500       37.03800
H         12.17700        5.35500       39.29500
H         11.07800        4.09500       39.61100
