85

Mg        -2.93300       16.89300       26.67100
C         -3.04200       14.96900       29.60200
C         -3.87900       19.55200       28.62400
C         -3.31400       18.71400       23.84000
C         -3.11900       13.90800       24.89800
N         -3.27800       17.24100       28.93600
C         -3.17600       16.33200       30.00200
C         -3.52400       17.01800       31.39900
C         -4.15800       18.35200       30.99600
C         -3.81400       18.37100       29.43000
C         -5.66900       18.49800       31.22200
C         -2.27200       17.11700       32.34300
C         -2.44800       16.64100       33.80600
C         -1.26300       16.48100       34.61200
O         -0.19400       16.01000       34.28800
O         -1.54800       16.90500       35.93100
N         -3.28000       18.75900       26.29200
C         -3.56400       19.75700       27.27900
C         -3.54100       21.06700       26.63500
C         -3.23100       20.83500       25.23100
C         -3.30800       19.36300       25.05900
C         -3.79200       22.29500       27.35000
C         -2.94300       21.78300       24.13000
O         -2.63500       21.46300       22.99500
C         -2.81300       23.17000       24.50600
N         -3.32700       16.34800       24.72400
C         -3.29600       17.34000       23.71400
C         -3.23100       16.61400       22.32700
C         -3.16300       15.13300       22.67500
C         -3.22400       15.10900       24.16700
C         -4.32400       17.06500       21.27300
C         -1.96300       14.31100       22.11500
C         -0.60300       14.48200       22.88700
N         -2.90000       14.83400       27.09600
C         -2.93900       13.75100       26.24500
C         -2.79800       12.52600       26.97900
C         -2.93500       12.96300       28.28200
C         -2.90600       14.31900       28.31700
C         -2.71600       11.13400       26.39900
C         -2.96400       12.48100       29.60900
O         -2.73500       11.28400       29.97800
C         -3.10300       13.74300       30.52000
C         -2.10800       13.59500       31.61900
O         -0.92400       13.72600       31.46500
O         -2.75500       13.26100       32.80900
C         -1.99500       13.05200       34.04000
C         -0.42500       16.99600       36.89200
H         -0.72101       17.68977       37.68288
H         -4.03600       20.42800       29.25700
H         -3.40300       19.40400       22.99800
H         -3.02000       12.94700       24.38800
H         -4.28000       16.44200       31.93300
H         -3.72500       19.18000       31.55700
H         -5.84800       19.55500       31.41800
H         -6.00900       17.95600       32.10500
H         -6.18400       18.17500       30.31700
H         -1.94100       18.14900       32.46200
H         -1.55400       16.45000       31.86500
H         -2.89700       15.64800       33.85300
H         -3.17400       17.28300       34.30300
H         -3.88200       22.21200       28.43300
H         -4.60400       22.88700       26.92800
H         -2.95700       22.95600       27.12000
H         -1.94500       23.13000       25.16500
H         -3.78800       23.39800       24.93600
H         -2.60900       23.66200       23.55500
H         -2.29300       16.97400       21.90200
H         -4.11700       14.74700       22.31700
H         -3.81200       17.42400       20.38000
H         -4.92400       17.89000       21.65700
H         -4.91200       16.20000       20.96300
H         -1.75000       14.75500       21.14200
H         -2.17700       13.24400       22.05700
H         -0.71200       15.08700       23.78600
H          0.14200       15.05600       22.33500
H         -0.35100       13.47100       23.20800
H         -1.74200       10.76300       26.08100
H         -3.33500       11.20200       25.50500
H         -3.11800       10.52200       27.20700
H         -4.10800       13.65600       30.93300
H         -1.66000       12.01500       34.04700
H         -2.65400       13.17400       34.90000
H         -1.13200       13.70600       34.16500
H          0.44700       17.40500       36.38200
H         -0.23100       16.03000       37.35800
