85

Mg        47.36200       34.88700       28.08400
C         45.58400       32.91300       30.60700
C         47.17400       37.60300       30.29600
C         48.23200       36.98300       25.62500
C         46.84500       32.23100       26.03500
N         46.44600       35.16800       30.21500
C         46.09800       34.12800       31.09800
C         46.24600       34.67800       32.56900
C         46.33100       36.22400       32.40200
C         46.62200       36.35800       30.82000
C         45.15800       37.09800       32.96800
C         47.36400       33.86800       33.27200
C         47.47900       34.12200       34.80700
C         46.49700       35.10300       35.47700
O         45.27300       34.90200       35.62700
O         47.27100       36.09500       36.03300
N         47.73400       37.02800       27.96000
C         47.56300       37.95500       28.99300
C         47.81700       39.26000       28.50400
C         48.38700       39.06500       27.18700
C         48.12200       37.67400       26.85300
C         47.63500       40.52800       29.34600
C         49.03100       40.14900       26.32300
O         49.43400       39.99700       25.18100
C         49.17900       41.48900       26.85900
N         47.34000       34.67500       26.08000
C         47.74400       35.67100       25.18200
C         47.99300       35.07200       23.77500
C         47.42900       33.56200       23.93700
C         47.15900       33.48400       25.43000
C         47.18400       35.82600       22.64600
C         48.50200       32.53100       23.44500
C         47.92400       31.49400       22.41100
N         46.60400       32.87400       28.27500
C         46.43700       31.95700       27.28900
C         45.72000       30.79500       27.74500
C         45.31800       31.18100       29.06700
C         45.80000       32.43900       29.31400
C         45.54200       29.46500       26.97700
C         44.63100       30.70200       30.23500
O         44.02100       29.61800       30.34200
C         44.65600       31.90500       31.29400
C         44.97200       31.48100       32.61200
O         45.84000       30.65600       32.87400
O         44.07400       32.03900       33.52000
C         44.46600       31.78200       34.90800
C         46.50600       36.91600       36.96400
H         47.15653       37.60220       37.51204
H         47.28700       38.42500       31.00600
H         48.69700       37.58000       24.83800
H         46.68700       31.40800       25.33500
H         45.33200       34.34200       33.05800
H         47.16300       36.61700       32.98700
H         44.73700       37.73900       32.19300
H         45.60000       37.67700       33.77900
H         44.39600       36.50200       33.46900
H         48.31700       34.33100       33.01700
H         47.54100       32.84000       32.95500
H         48.50900       34.34900       35.08100
H         47.39100       33.14600       35.28600
H         48.64400       40.80800       29.65000
H         47.12800       40.39500       30.30100
H         47.10800       41.27800       28.75600
H         48.18600       41.87700       27.08400
H         49.57300       42.17500       26.10900
H         49.87500       41.44800       27.69700
H         49.04400       35.08600       23.48600
H         46.40700       33.42000       23.58400
H         46.65600       35.17900       21.94600
H         47.89900       36.23500       21.93200
H         46.57000       36.65700       22.99300
H         49.01100       31.94900       24.21300
H         49.27100       33.10300       22.92600
H         48.15800       30.46300       22.67700
H         48.18200       31.73800       21.38100
H         46.84200       31.61200       22.47100
H         45.74100       28.65900       27.68400
H         46.36500       29.36000       26.27000
H         44.58700       29.50100       26.45300
H         43.70100       32.43000       31.29900
H         44.22100       30.76000       35.19500
H         43.93100       32.39400       35.63400
H         45.52200       32.02900       35.01600
H         46.04900       36.16500       37.60800
H         45.68200       37.42700       36.46600
