85

Mg        47.39900       25.17200       28.82400
C         48.18400       27.43000       31.59600
C         46.62800       22.84100       31.27400
C         47.57400       22.99300       26.44500
C         48.61200       27.63600       26.71200
N         47.23100       25.21100       31.18900
C         47.50500       26.27700       32.08900
C         47.10000       25.98300       33.48600
C         46.80300       24.39700       33.36600
C         46.91000       24.10700       31.86500
C         47.51700       23.46500       34.35600
C         45.91200       26.77300       34.16100
C         46.20900       27.37200       35.52800
C         44.97300       27.66200       36.43700
O         43.86700       27.98400       36.04600
O         45.35900       27.36500       37.70900
N         47.00900       23.21800       28.86900
C         46.73000       22.36100       29.88800
C         46.47800       21.00900       29.39000
C         46.86200       21.04800       27.99800
C         47.22300       22.46300       27.73900
C         45.93800       19.86000       30.17600
C         46.87600       19.92300       27.02700
O         47.33500       20.02300       25.86900
C         46.25600       18.52900       27.47100
N         48.12500       25.31600       26.85200
C         47.96800       24.26600       26.00200
C         48.11500       24.65500       24.52000
C         47.90800       26.21800       24.66000
C         48.27900       26.40900       26.15300
C         49.47700       24.19500       23.91400
C         46.50800       26.69900       24.24900
C         46.35700       27.71100       23.13200
N         48.23800       27.12200       29.07600
C         48.66800       27.99700       28.09200
C         49.17900       29.19600       28.70400
C         48.92900       29.06800       30.06700
C         48.44200       27.73500       30.23500
C         49.74200       30.31400       27.92700
C         49.01500       29.69000       31.34200
O         49.26200       30.83800       31.63500
C         48.70100       28.63400       32.40500
C         49.85100       28.34900       33.38000
O         50.69800       27.46800       33.31800
O         49.63300       29.04800       34.50600
C         50.61200       28.93800       35.61000
C         44.37500       27.52900       38.77100
H         44.79085       27.13118       39.70013
H         46.30100       22.04500       31.94600
H         47.65200       22.36800       25.55300
H         48.78400       28.47300       26.03200
H         47.99300       26.18200       34.07800
H         45.71800       24.36100       33.45800
H         46.77000       23.06400       35.04200
H         48.29800       23.98700       34.90800
H         47.97100       22.62200       33.83600
H         44.99500       26.21200       34.34300
H         45.73300       27.64900       33.53700
H         46.67200       28.33900       35.33100
H         46.98700       26.73900       35.95600
H         44.87000       19.73600       29.99800
H         45.97700       20.22800       31.20200
H         46.26000       18.82900       30.03100
H         46.05300       18.02900       26.52400
H         45.29900       18.64700       27.98000
H         46.94300       17.91800       28.05700
H         47.30800       24.24500       23.91300
H         48.60500       26.78200       24.04000
H         50.05800       23.42200       24.41700
H         50.12200       25.07300       23.92000
H         49.36200       23.76900       22.91700
H         46.00700       27.16700       25.09700
H         45.94200       25.79800       24.01300
H         45.93300       27.24500       22.24200
H         47.18100       28.36400       22.84500
H         45.57300       28.39800       23.45000
H         49.90300       29.95100       26.91200
H         50.57800       30.79100       28.43800
H         48.89700       31.00300       27.93300
H         47.83200       29.02200       32.93600
H         50.06900       28.37900       36.37200
H         50.75200       29.95200       35.98500
H         51.53200       28.47100       35.25800
H         43.44900       27.00600       38.53000
H         44.25300       28.60800       38.86400
