85

Mg        -6.06100       23.84000       26.79800
C         -4.81800       26.06500       29.12400
C         -6.95600       21.79400       29.32900
C         -7.51700       21.88500       24.45600
C         -4.97000       26.03500       24.17300
N         -5.97300       23.99600       29.03400
C         -5.47200       25.02500       29.75800
C         -5.72700       24.82300       31.26700
C         -6.23400       23.31500       31.30000
C         -6.42400       23.00800       29.81400
C         -5.37700       22.25400       31.93600
C         -6.75900       25.92200       31.70300
C         -7.53300       25.96300       33.04300
C         -7.22700       24.90900       34.13100
O         -6.14600       24.35700       34.37000
O         -8.35400       24.76100       34.95900
N         -7.01200       21.96600       26.91700
C         -7.38100       21.29100       28.05300
C         -8.07200       20.02700       27.64700
C         -8.23800       20.07600       26.19800
C         -7.62000       21.34300       25.80300
C         -8.53100       19.01200       28.62500
C         -8.98700       19.02100       25.29300
O         -9.01600       19.16300       24.07100
C         -9.61900       17.85800       25.93000
N         -6.27800       23.94200       24.64600
C         -6.89800       23.07700       23.94000
C         -7.08300       23.44700       22.50100
C         -6.28100       24.77300       22.36100
C         -5.75400       24.90400       23.84500
C         -6.52500       22.32700       21.49000
C         -7.14200       25.95600       21.89000
C         -7.42100       25.98100       20.35800
N         -4.98000       25.66300       26.54100
C         -4.60000       26.45000       25.49700
C         -4.04600       27.68400       25.99500
C         -4.03400       27.48600       27.39300
C         -4.68200       26.32500       27.67000
C         -3.49400       28.83000       25.20100
C         -3.50200       28.04500       28.64800
O         -2.84200       29.06100       28.85500
C         -4.11500       27.19300       29.82100
C         -2.99300       26.75700       30.69900
O         -2.29300       25.76200       30.51600
O         -2.86300       27.58100       31.78500
C         -1.76000       27.35100       32.65400
C         -8.07000       23.81600       36.00400
H         -9.00297       23.64981       36.54841
H         -7.26300       21.16200       30.16500
H         -8.02300       21.22600       23.74700
H         -4.70100       26.76300       23.40400
H         -4.81400       25.06400       31.81200
H         -7.25100       23.31300       31.69300
H         -6.02300       21.61700       32.54000
H         -4.67800       22.78600       32.58200
H         -4.80400       21.62100       31.25800
H         -7.45500       26.00400       30.86700
H         -6.19000       26.85200       31.71600
H         -8.57300       25.95900       32.71700
H         -7.44700       26.94600       33.50500
H         -9.61900       18.96900       28.67400
H         -8.21500       19.18900       29.65300
H         -8.13800       18.02200       28.39600
H        -10.23700       17.31500       25.21500
H        -10.29600       18.40700       26.58500
H         -9.03700       17.25500       26.62700
H         -8.14500       23.49200       22.26200
H         -5.53500       24.65000       21.57600
H         -7.23800       22.27200       20.66700
H         -6.40600       21.35200       21.96200
H         -5.56300       22.56800       21.03800
H         -6.68900       26.93000       22.07000
H         -8.06600       25.94800       22.46900
H         -6.48500       26.08700       19.80900
H         -8.10900       26.81500       20.22500
H         -7.82000       25.03100       20.00200
H         -2.48600       28.49100       24.96300
H         -3.54700       29.78100       25.73200
H         -4.03100       28.98600       24.26600
H         -4.80000       27.82000       30.39200
H         -1.34500       28.34500       32.82200
H         -0.87300       26.84200       32.27700
H         -2.14700       27.11100       33.64500
H         -7.36100       24.26400       36.70000
H         -7.66500       22.83800       35.74200
