85

Mg        17.52400       -1.36200       28.68100
C         16.62200        0.34600       31.48900
C         19.84500       -3.02900       30.42800
C         18.52800       -2.79400       25.70300
C         15.31900        0.61100       26.78300
N         18.20000       -1.31300       30.79600
C         17.62100       -0.57700       31.80200
C         18.20000       -0.91900       33.16100
C         19.26800       -1.98900       32.79700
C         19.08600       -2.18000       31.27400
C         20.80900       -1.74500       33.11800
C         17.11400       -1.42400       34.19900
C         16.80800       -0.47400       35.37500
C         17.39600       -0.88200       36.73700
O         16.74700       -1.38100       37.70300
O         18.63700       -0.35500       36.87400
N         18.96500       -2.70400       28.14800
C         19.90600       -3.21300       29.05000
C         20.86000       -3.98700       28.31500
C         20.41500       -3.97200       26.91100
C         19.24200       -3.11300       26.87700
C         22.02800       -4.65900       28.95800
C         21.08300       -4.64500       25.73400
O         20.75600       -4.53600       24.59200
C         22.31500       -5.45600       25.96500
N         17.05400       -1.07000       26.44600
C         17.43100       -1.95500       25.44900
C         16.68100       -1.67000       24.18100
C         15.69700       -0.54100       24.53000
C         16.08200       -0.29300       26.01900
C         17.56400       -1.29700       23.06200
C         14.23100       -1.03100       24.41400
C         13.80500       -2.16800       25.45300
N         16.15100        0.12700       29.02100
C         15.38900        0.81700       28.12700
C         14.65700        1.79700       28.84800
C         15.12500        1.69200       30.19400
C         15.98600        0.61200       30.24700
C         13.70500        2.77300       28.31900
C         15.02700        2.18000       31.57200
O         14.37300        3.08500       32.02200
C         16.01900        1.31900       32.41300
C         16.93900        2.32000       32.83100
O         17.93400        2.69100       32.24200
O         16.55500        2.82900       34.05100
C         17.56000        3.64900       34.66600
C         19.41300       -0.49100       38.11000
H         19.74639       -1.52731       38.20957
H         20.46400       -3.61100       31.11500
H         18.89100       -3.37200       24.85000
H         14.52800        1.17900       26.28900
H         18.73900       -0.00300       33.40500
H         19.02000       -3.00400       33.10600
H         21.11400       -2.62300       33.68600
H         20.96300       -0.92100       33.81400
H         21.44100       -1.61600       32.24000
H         17.44300       -2.38200       34.60000
H         16.26800       -1.65800       33.55300
H         15.73100       -0.51900       35.53200
H         16.94700        0.57900       35.13200
H         22.91000       -4.08000       28.68700
H         22.24500       -5.71700       28.81100
H         22.00800       -4.53500       30.04100
H         22.08400       -6.23900       26.68700
H         22.84900       -4.60700       26.39200
H         22.79900       -5.79000       25.04800
H         16.16400       -2.59200       23.91400
H         15.90100        0.39100       24.00300
H         17.42400       -0.24200       22.82500
H         17.23200       -1.78000       22.14200
H         18.64200       -1.45600       23.08700
H         14.08700       -1.37800       23.39000
H         13.54700       -0.18300       24.43900
H         12.99800       -1.74100       26.04900
H         14.55700       -2.50200       26.16800
H         13.31700       -3.02900       24.99800
H         12.94700        2.86600       29.09700
H         13.24700        2.60400       27.34400
H         14.23600        3.72400       28.36700
H         15.51700        0.88300       33.27700
H         18.21900        3.14200       35.37100
H         16.95400        4.30300       35.29300
H         18.20300        4.32500       34.10200
H         18.72400       -0.25200       38.92000
H         20.27100        0.18000       38.14200
