85

Mg        41.44500        8.62600       28.94300
C         43.32500        9.83100       31.60000
C         39.12300        7.19800       31.23300
C         39.98800        7.07100       26.36800
C         43.90000        9.67100       26.69800
N         41.28900        8.48400       31.21800
C         42.17000        9.21300       32.05200
C         41.69300        9.07100       33.50400
C         40.38600        8.22500       33.39200
C         40.19700        7.98300       31.87000
C         40.41300        7.03000       34.38900
C         41.55200       10.46600       34.15600
C         40.53200       10.80600       35.28300
C         41.11600       11.29200       36.61500
O         41.30200       12.43100       36.96200
O         41.52100       10.22300       37.33800
N         39.75400        7.40700       28.81900
C         38.86900        6.94600       29.83900
C         37.73700        6.39700       29.19600
C         38.01700        6.29800       27.78400
C         39.35800        6.91100       27.65800
C         36.53400        6.01500       30.09600
C         37.04100        5.75700       26.65600
O         37.31400        5.64600       25.46800
C         35.58600        5.46100       27.01200
N         41.82400        8.62400       26.77200
C         41.10000        7.90200       25.92400
C         41.58100        7.97600       24.39700
C         42.79300        8.89700       24.56500
C         42.84800        9.04900       26.10800
C         41.86200        6.61400       23.68300
C         42.60200       10.20100       23.79500
C         42.02300       11.39200       24.51400
N         43.21100        9.59400       29.07200
C         44.13100        9.92800       28.07900
C         45.27000       10.48100       28.67700
C         44.93400       10.57400       30.08300
C         43.71100        9.96500       30.28300
C         46.48400       10.80200       27.95100
C         45.51400       10.98900       31.36000
O         46.57500       11.52400       31.63700
C         44.37300       10.59600       32.37100
C         44.89000        9.71700       33.44600
O         45.30100        8.59000       33.22400
O         44.93300       10.27700       34.67600
C         45.40100        9.51200       35.79200
C         42.37500       10.44600       38.55900
H         41.74887       10.49313       39.45364
H         38.41100        6.92600       32.01400
H         39.62700        6.51500       25.50000
H         44.58100        9.99900       25.91000
H         42.53300        8.56700       33.98300
H         39.52200        8.78700       33.74800
H         41.10300        6.23700       34.10100
H         39.41100        6.60800       34.45400
H         40.62200        7.37300       35.40300
H         41.56700       11.22100       33.37000
H         42.51700       10.63300       34.63400
H         39.91300        9.93800       35.51200
H         39.80400       11.56400       34.99200
H         36.60000        6.36900       31.12500
H         36.24500        4.97700       29.92800
H         35.75400        6.60800       29.61900
H         35.62100        4.89700       27.94400
H         35.21400        4.85700       26.18400
H         35.02800        6.36100       27.27000
H         40.90000        8.50700       23.73300
H         43.70400        8.38100       24.26100
H         41.01000        6.57000       23.00300
H         41.75100        5.76300       24.35400
H         42.82000        6.66200       23.16600
H         42.00700       10.07900       22.89000
H         43.62400       10.47400       23.53000
H         41.60000       11.09300       25.47300
H         41.11400       11.59800       23.94800
H         42.60300       12.31300       24.58100
H         46.34900       10.84400       26.87000
H         47.32600       10.13800       28.14400
H         46.82100       11.78800       28.26900
H         43.90900       11.51000       32.74200
H         46.34900        9.96700       36.08200
H         45.61000        8.45800       35.60800
H         44.74100        9.47200       36.65900
H         42.87400       11.40000       38.38800
H         43.14700        9.68200       38.64500
