85

Mg        48.29800       15.81100       27.99200
C         46.14800       15.57600       30.82800
C         50.20000       17.85400       29.62000
C         50.08000       16.09800       25.08400
C         45.73600       14.11500       26.21400
N         48.19400       16.50500       30.01000
C         47.36200       16.16900       31.06300
C         47.92800       16.70700       32.40400
C         49.01900       17.67300       31.91600
C         49.20000       17.33500       30.43800
C         48.75600       19.17900       32.12700
C         48.34800       15.54900       33.44900
C         47.84200       15.84300       34.82800
C         48.86500       15.50900       35.92100
O         49.36200       14.44000       36.08100
O         49.22900       16.61000       36.69600
N         50.02600       16.71100       27.41900
C         50.67500       17.55800       28.27500
C         51.88500       18.06800       27.63400
C         51.92800       17.53900       26.33700
C         50.66000       16.73900       26.21900
C         52.75500       19.10300       28.33100
C         52.94900       17.65500       25.22700
O         52.85700       17.00400       24.20000
C         54.12700       18.60900       25.46000
N         47.96300       15.16400       25.94800
C         48.89900       15.37800       24.95400
C         48.43800       14.72000       23.63700
C         47.06400       13.99900       24.04100
C         46.93200       14.42900       25.48600
C         48.28400       15.91200       22.52800
C         47.04100       12.49800       23.61800
C         47.77100       11.50800       24.55600
N         46.35700       15.04100       28.38800
C         45.42200       14.37000       27.56100
C         44.21600       14.00500       28.32800
C         44.44900       14.47800       29.59800
C         45.78900       15.02100       29.62000
C         42.97100       13.30500       27.79100
C         43.94000       14.50100       30.97900
O         42.92900       13.88800       31.43400
C         45.01800       15.25100       31.76500
C         44.45700       16.37200       32.49000
O         44.73000       17.53700       32.37300
O         43.65200       15.80600       33.47900
C         42.92500       16.76900       34.35700
C         50.34900       16.34300       37.57500
H         50.63298       17.24779       38.11828
H         50.80400       18.56000       30.19200
H         50.67200       16.08600       24.16600
H         44.86700       13.58000       25.82500
H         47.24800       17.40100       32.89700
H         49.92800       17.52400       32.49800
H         49.67600       19.59400       32.53900
H         48.01000       19.54800       32.83000
H         48.65600       19.75300       31.20600
H         49.43600       15.48900       33.48800
H         47.99200       14.56200       33.15400
H         46.92400       15.26600       34.94100
H         47.46400       16.86000       34.93200
H         53.76000       18.73200       28.52800
H         52.25500       19.38200       29.25900
H         52.77500       20.00300       27.71600
H         54.85600       18.39600       26.24300
H         53.70400       19.57500       25.73300
H         54.66100       18.61900       24.51000
H         49.17600       13.96900       23.35600
H         46.22200       14.52100       23.58700
H         47.79000       16.77900       22.96800
H         47.73000       15.62300       21.63500
H         49.28800       16.22400       22.23900
H         47.47700       12.42700       22.62100
H         46.00200       12.17100       23.62100
H         47.20800       10.57500       24.58000
H         47.76100       11.96900       25.54300
H         48.81500       11.37800       24.26900
H         43.19000       12.68900       26.91800
H         42.12600       13.89400       27.43400
H         42.51600       12.68100       28.56000
H         45.33300       14.62300       32.59900
H         42.14100       17.13600       33.69500
H         43.60100       17.53000       34.74700
H         42.46400       16.20100       35.16500
H         51.20500       15.88700       37.07700
H         50.05400       15.54600       38.25900
