85

Mg        16.46200       52.38200       25.75600
C         18.07000       51.04600       28.72900
C         14.01900       53.63400       27.65200
C         15.20400       53.59600       22.92200
C         18.94300       50.83500       23.85700
N         16.10100       52.31400       27.93900
C         16.88400       51.78700       28.93800
C         16.35500       52.28000       30.28300
C         14.90600       52.96400       29.93300
C         14.98400       53.02100       28.39300
C         13.66600       52.19100       30.48800
C         17.33600       53.27500       30.89100
C         17.85700       52.97600       32.37400
C         17.35800       53.87800       33.53600
O         18.04800       54.76200       33.94200
O         16.10500       53.60700       33.92200
N         14.78400       53.51000       25.29200
C         13.86900       53.86000       26.19300
C         12.82000       54.69700       25.59800
C         13.05100       54.51400       24.17200
C         14.41800       53.89400       24.05500
C         11.63400       55.15800       26.37900
C         12.25700       54.91300       23.04400
O         12.60300       54.71100       21.94400
C         10.94000       55.61900       23.28400
N         16.88600       52.02700       23.62500
C         16.26600       52.74900       22.67600
C         16.94000       52.54200       21.29700
C         18.20700       51.73500       21.70900
C         18.00700       51.50400       23.10600
C         16.03300       51.89400       20.24200
C         19.54700       52.58100       21.47500
C         19.73400       53.11700       20.08400
N         18.13200       51.04900       26.13100
C         19.04500       50.50200       25.26400
C         20.10300       49.75600       26.00300
C         19.69800       49.91900       27.33900
C         18.55500       50.74000       27.37900
C         21.27100       49.11200       25.46100
C         19.95400       49.50100       28.71500
O         20.77100       48.65900       29.09900
C         19.05100       50.34500       29.66800
C         18.46100       49.44000       30.57500
O         17.43900       48.75000       30.40500
O         19.13100       49.51100       31.76400
C         18.49500       48.73800       32.87000
C         15.74700       54.59100       35.00200
H         14.66138       54.55327       35.12234
H         13.23700       54.08300       28.26900
H         14.91100       54.07100       21.98300
H         19.79500       50.58100       23.22200
H         16.36300       51.42000       30.95300
H         14.84500       53.95700       30.37900
H         13.48600       52.53200       31.50800
H         14.01100       51.15700       30.50800
H         12.87000       52.42600       29.78100
H         16.90700       54.27400       30.98100
H         18.22600       53.33900       30.26700
H         18.91800       53.22900       32.38100
H         17.61700       51.93700       32.60200
H         11.48400       56.22300       26.20600
H         11.72600       54.98600       27.45200
H         10.84200       54.55200       25.94000
H         10.22600       54.95700       23.77300
H         10.44200       55.90100       22.35700
H         11.08100       56.51600       23.88600
H         17.28100       53.48800       20.87600
H         18.37100       50.85500       21.08800
H         15.76400       52.65800       19.51200
H         15.12800       51.65700       20.80100
H         16.44700       50.98700       19.80000
H         20.45600       52.03400       21.72200
H         19.57600       53.39600       22.19800
H         19.26800       52.43600       19.37200
H         20.75200       53.45000       19.88000
H         19.24600       54.09100       20.08100
H         21.39400       48.09700       25.84000
H         22.23300       49.59300       25.63700
H         21.19200       48.98000       24.38200
H         19.62800       51.10200       30.20000
H         18.21600       47.73500       32.54800
H         17.61500       49.29100       33.20100
H         19.17700       48.69400       33.72000
H         16.03600       55.63300       34.86600
H         16.18800       54.45300       35.99000
